Version 4.1
SHEET 1 1908 1272
WIRE -272 32 -464 32
WIRE 16 32 -272 32
WIRE 16 160 16 32
WIRE 48 160 16 160
WIRE 0 176 -96 176
WIRE 336 176 176 176
WIRE 0 192 0 176
WIRE 48 192 0 192
WIRE -608 208 -688 208
WIRE -464 208 -464 32
WIRE -464 208 -528 208
WIRE 48 224 -368 224
WIRE -272 304 -272 32
WIRE 272 304 -272 304
WIRE 384 304 272 304
WIRE 992 320 512 320
WIRE 336 336 336 176
WIRE 384 336 336 336
WIRE -272 368 -272 304
WIRE -192 368 -272 368
WIRE -32 368 -192 368
WIRE 384 368 176 368
WIRE -32 448 -32 368
WIRE 16 448 -32 448
WIRE 1120 448 1040 448
WIRE 176 464 176 368
WIRE 176 464 144 464
WIRE 1520 464 1248 464
WIRE -368 480 -368 224
WIRE -368 480 -496 480
WIRE 16 480 -32 480
WIRE 992 480 992 320
WIRE 1120 480 992 480
WIRE -32 496 -32 480
WIRE -32 496 -64 496
WIRE 624 496 576 496
WIRE 896 496 624 496
WIRE 16 512 -16 512
WIRE 896 512 896 496
WIRE 1120 512 896 512
WIRE -272 528 -272 368
WIRE -272 528 -496 528
WIRE -192 576 -192 368
WIRE -80 576 -192 576
WIRE -496 624 -496 528
WIRE -336 624 -496 624
WIRE -176 624 -224 624
WIRE -16 624 -16 512
WIRE -16 624 -176 624
WIRE 272 640 272 304
WIRE 320 640 272 640
WIRE 688 640 320 640
WIRE 992 640 800 640
WIRE -368 656 -368 480
WIRE -336 656 -368 656
WIRE 624 672 624 496
WIRE 688 672 624 672
WIRE -80 704 -80 576
WIRE -80 704 -320 704
WIRE 0 704 -80 704
WIRE 1648 704 1200 704
WIRE 1840 720 1776 720
WIRE 1520 736 1520 464
WIRE 1648 736 1520 736
WIRE 320 752 320 640
WIRE 1040 752 1040 448
WIRE 1040 752 320 752
WIRE 1200 752 1200 704
WIRE 1200 752 1040 752
WIRE 0 768 0 704
WIRE 32 768 0 768
WIRE 1648 768 1280 768
WIRE -16 784 -48 784
WIRE 224 784 160 784
WIRE -16 800 -16 784
WIRE 32 800 -16 800
WIRE 32 832 16 832
WIRE -368 896 -368 656
WIRE 16 896 16 832
WIRE 16 896 -368 896
WIRE 1040 896 1040 752
WIRE 1072 896 1040 896
WIRE 320 912 320 752
WIRE 352 912 320 912
WIRE 1280 912 1280 768
WIRE 1280 912 1200 912
WIRE 784 928 480 928
WIRE 992 928 992 640
WIRE 1072 928 992 928
WIRE 224 944 224 784
WIRE 352 944 224 944
WIRE 784 960 784 928
WIRE 1072 960 784 960
WIRE 352 976 224 976
WIRE -320 1040 -320 704
WIRE -48 1040 -320 1040
WIRE -48 1056 -48 1040
WIRE 0 1056 -48 1056
WIRE 224 1072 224 976
WIRE 224 1072 128 1072
WIRE 0 1088 -64 1088
WIRE 0 1120 -32 1120
WIRE -176 1216 -176 624
WIRE -32 1216 -32 1120
WIRE -32 1216 -176 1216
FLAG -176 176 0
FLAG -144 496 0
FLAG -128 784 0
FLAG -144 1088 0
FLAG -576 480 0
FLAG 496 496 0
FLAG 48 128 0
FLAG 16 416 0
FLAG 384 272 0
FLAG 352 880 0
FLAG 32 736 0
FLAG 0 1024 0
FLAG 1072 864 0
FLAG 1120 416 0
FLAG 688 608 0
FLAG 1648 672 0
FLAG -688 208 0
FLAG 1840 720 vout
FLAG -336 592 0
SYMBOL nand 112 176 R0
SYMATTR InstName X1
SYMBOL nand 80 464 R0
SYMATTR InstName X2
SYMBOL nand 96 784 R0
SYMATTR InstName X3
SYMBOL nand 64 1072 R0
SYMATTR InstName X4
SYMBOL nand 448 320 R0
SYMATTR InstName X5
SYMBOL nand 416 928 R0
SYMATTR InstName X6
SYMBOL nand 1184 464 R0
SYMATTR InstName X7
SYMBOL nand 1136 912 R0
SYMATTR InstName X8
SYMBOL nand 1712 720 R0
SYMATTR InstName X9
SYMBOL inv -288 624 R0
SYMATTR InstName X10
SYMBOL inv 736 640 R0
SYMATTR InstName X11
SYMBOL voltage -80 176 R90
WINDOW 0 -32 56 VBottom 2
WINDOW 3 -4 56 VBottom 2
WINDOW 123 0 0 Left 0
WINDOW 39 0 0 Left 0
SYMATTR InstName d0
SYMATTR Value PULSE(0 1.8 0 10p 10p 5n 10n 32)
SYMBOL voltage -48 496 R90
WINDOW 0 -32 56 VBottom 2
WINDOW 3 32 56 VTop 2
WINDOW 123 0 0 Left 0
WINDOW 39 0 0 Left 0
SYMATTR InstName d1
SYMATTR Value PULSE(0 1.8 0 10p 10p 10n 20n 16)
SYMBOL voltage -32 784 R90
WINDOW 0 -32 56 VBottom 2
WINDOW 3 32 56 VTop 2
WINDOW 123 0 0 Left 0
WINDOW 39 0 0 Left 0
SYMATTR InstName d2
SYMATTR Value PULSE(0 1.8 0 10p 10p 20n 40n 8)
SYMBOL voltage -48 1088 R90
WINDOW 0 -32 56 VBottom 2
WINDOW 3 32 56 VTop 2
WINDOW 123 0 0 Left 0
WINDOW 39 0 0 Left 0
SYMATTR InstName d3
SYMATTR Value PULSE(0 1.8 0 10p 10p 40n 80n 4)
SYMBOL voltage -480 480 R90
WINDOW 0 -32 56 VBottom 2
WINDOW 3 -4 56 VBottom 2
WINDOW 123 0 0 Left 0
WINDOW 39 0 0 Left 0
SYMATTR InstName s0
SYMATTR Value PULSE(0 1.8 0 10p 10p 80n 160n 2)
SYMBOL voltage 592 496 R90
WINDOW 0 -32 56 VBottom 2
WINDOW 3 -4 56 VBottom 2
WINDOW 123 0 0 Left 0
WINDOW 39 0 0 Left 0
SYMATTR InstName s1
SYMATTR Value PULSE(0 1.8 0 10p 10p 160n 320n 1)
SYMBOL voltage -512 208 R90
WINDOW 0 -32 56 VBottom 2
WINDOW 3 32 56 VTop 2
WINDOW 123 0 0 Left 0
WINDOW 39 0 0 Left 0
SYMATTR InstName vdd
SYMATTR Value 1.8
TEXT -1032 1144 Left 2 !.include MOSFET_models_0p5_0p18-4.inc
TEXT -624 1256 Left 2 !.tran 0.01n 320n
